#======================================================================

# CRYSTAL DATA

#----------------------------------------------------------------------

data_VESTA_phase_1


_chemical_name_common                  'vasp                                  '
_cell_length_a                         8.19773
_cell_length_b                         8.19773
_cell_length_c                         10.03471
_cell_angle_alpha                      91.02531
_cell_angle_beta                       88.97469
_cell_angle_gamma                      120.67924
_space_group_name_H-M_alt              'P 1'
_space_group_IT_number                 1

loop_
_space_group_symop_operation_xyz
   'x, y, z'

loop_
   _atom_site_label
   _atom_site_occupancy
   _atom_site_fract_x
   _atom_site_fract_y
   _atom_site_fract_z
   _atom_site_adp_type
   _atom_site_B_iso_or_equiv
   _atom_site_type_symbol
   Bi1        1.0     0.673896      0.341187      0.175482     Biso  1.000000 Bi
   Bi2        1.0     0.341187      0.673896      0.824519     Biso  1.000000 Bi
   Cs1        1.0     0.984637      0.984637      0.000000     Biso  1.000000 Cs
   Cs2        1.0     0.650309      0.337290      0.653876     Biso  1.000000 Cs
   Cs3        1.0     0.337290      0.650309      0.346124     Biso  1.000000 Cs
   I1         1.0     0.306432      0.134778      0.317103     Biso  1.000000 I
   I2         1.0     0.828589      0.153783      0.335263     Biso  1.000000 I
   I3         1.0     0.134778      0.306432      0.682897     Biso  1.000000 I
   I4         1.0     0.153783      0.828589      0.664737     Biso  1.000000 I
   Br1        1.0     0.525934      0.525934      0.000000     Biso  1.000000 Br
   Br2        1.0     0.565315      0.050641      0.960725     Biso  1.000000 Br
   Br3        1.0     0.050641      0.565315      0.039275     Biso  1.000000 Br
   Br4        1.0     0.801783      0.645425      0.346657     Biso  1.000000 Br
   Br5        1.0     0.645425      0.801783      0.653343     Biso  1.000000 Br
