#======================================================================

# CRYSTAL DATA

#----------------------------------------------------------------------

data_VESTA_phase_1


_chemical_name_common                  'vasp                                  '
_cell_length_a                         7.98193
_cell_length_b                         7.98580
_cell_length_c                         9.89494
_cell_angle_alpha                      90
_cell_angle_beta                       90.02188
_cell_angle_gamma                      120.01606
_space_group_name_H-M_alt              'P 1'
_space_group_IT_number                 1

loop_
_space_group_symop_operation_xyz
   'x, y, z'

loop_
   _atom_site_label
   _atom_site_occupancy
   _atom_site_fract_x
   _atom_site_fract_y
   _atom_site_fract_z
   _atom_site_adp_type
   _atom_site_B_iso_or_equiv
   _atom_site_type_symbol
   Bi1        1.0     0.670131      0.335065      0.186649     Biso  1.000000 Bi
   Bi2        1.0     0.336169      0.668085      0.815720     Biso  1.000000 Bi
   Cs1        1.0     0.999329      0.999665      0.982764     Biso  1.000000 Cs
   Cs2        1.0     0.667440      0.333720      0.659357     Biso  1.000000 Cs
   Cs3        1.0     0.329005      0.664503      0.348390     Biso  1.000000 Cs
   I1         1.0     0.297898      0.148949      0.330213     Biso  1.000000 I
   Br1        1.0     0.531813      0.512626      0.983761     Biso  1.000000 Br
   Br2        1.0     0.531813      0.019186      0.983761     Biso  1.000000 Br
   Br3        1.0     0.033230      0.516615      0.026065     Biso  1.000000 Br
   Br4        1.0     0.818615      0.160158      0.344463     Biso  1.000000 Br
   Br5        1.0     0.818615      0.658457      0.344463     Biso  1.000000 Br
   Br6        1.0     0.154852      0.329105      0.670884     Biso  1.000000 Br
   Br7        1.0     0.154852      0.825747      0.670884     Biso  1.000000 Br
   Br8        1.0     0.656239      0.828120      0.652626     Biso  1.000000 Br
